*Heading
** Job name: Job-8 Model name: Model-1
** Generated by: Abaqus/CAE 2022
*Preprint, echo=NO, model=NO, history=NO, contact=NO
**
** PARTS
**
*Part, name=Part-1
*Node
      1,           0.,          10.
      2,           0.,           5.
      3,  0.918747604,   4.91486549
      4,   1.80620837,   4.66236115
      5,    2.6321609,   4.25108576
      6,   3.69504452,    3.3684783
      7,   4.25108576,    2.6321609
      8,   4.66236115,   1.80620837
      9,   4.91486549,  0.918747604
     10,           5.,           0.
     11,          10.,           0.
     12,          10.,          10.
     13,           0.,   9.54545498
     14,           0.,     9.090909
     15,           0.,   8.63636398
     16,           0.,   8.18181801
     17,           0.,   7.72727251
     18,           0.,   7.27272749
     19,           0.,   6.81818199
     20,           0.,   6.36363649
** ... 458 like lines cut
*Element, type=CPS3
  1, 117,  65,  66
  2, 151,  67,  84
  3,  84,  67,  68
  4, 118,  70,  98
  5, 310, 128,  63
  6,  91,  52,  53
  7, 179,  41, 111
  8, 146,   9, 139
  9, 180,  32,  33
 10, 124, 119,  38
 11, 161, 118,  98
 12, 229, 192, 215
 13, 220, 153, 175
 14, 103,  76,  77
 15, 121, 105,  18
 16, 122, 121,  19
 17, 242, 164, 236
 18, 150, 122,  20
 19,  87,  22,  23
 20,  22,   2,  23
** ... 851 like lines cut
*Nset, nset=Set-1, generate
   1,  478,    1
*Elset, elset=Set-1, generate
   1,  871,    1
** Section: Section-1
*Solid Section, elset=Set-1, material=Material-1
,
*End Part
**  
**
** ASSEMBLY
**
*Assembly, name=Assembly
**  
*Instance, name=Part-1-1, part=Part-1
*End Instance
**  
*Nset, nset=Set-1, instance=Part-1-1
  1,  2, 13, 14, 15, 16, 17, 18, 19, 20, 21, 22
*Elset, elset=Set-1, instance=Part-1-1
  20,  80,  81,  88, 123, 124, 129, 156, 158, 173, 177
*Nset, nset=Set-2, instance=Part-1-1
 10, 11, 32, 33, 34, 35, 36, 37, 38, 39, 40, 41
*Elset, elset=Set-2, instance=Part-1-1
   9,  29,  33,  39,  91,  92, 153, 162, 165, 240, 272
*Elset, elset=_Surf-1_S2, internal, instance=Part-1-1
   6,  36,  39,  52,  60,  85,  93,  95,  96,  98, 100, 104, 106, 108, 132, 137
 138, 140, 142, 146, 167, 170
*Surface, type=ELEMENT, name=Surf-1
_Surf-1_S2, S2
*End Assembly
** 
** MATERIALS
** 
*Material, name=Material-1
*Elastic
200000., 0.3
** 
** BOUNDARY CONDITIONS
** 
** Name: BC-1 Type: Displacement/Rotation
*Boundary
Set-1, 1, 1
** Name: BC-2 Type: Displacement/Rotation
*Boundary
Set-2, 2, 2
** ----------------------------------------------------------------
** 
** STEP: Step-1
** 
*Step, name=Step-1, nlgeom=NO
*Static
1., 1., 1e-05, 1.
** 
** LOADS
** 
** Name: Load-1   Type: Surface traction
*Dsload
Surf-1, TRVEC, 100., 1., 0., 0.
** 
** OUTPUT REQUESTS
** 
*Restart, write, frequency=0
** 
** FIELD OUTPUT: F-Output-1
** 
*Output, field, variable=PRESELECT
** 
** HISTORY OUTPUT: H-Output-1
** 
*Output, history, variable=PRESELECT
*End Step
